Version 4
SHEET 1 3016 1124
WIRE 1920 -304 144 -304
WIRE 2144 -272 528 -272
WIRE 528 -208 528 -272
WIRE 528 -208 416 -208
WIRE 656 -208 528 -208
WIRE 528 -192 528 -208
WIRE 528 -192 464 -192
WIRE 528 -176 528 -192
WIRE -96 -80 -224 -80
WIRE 144 -80 144 -304
WIRE 144 -80 -96 -80
WIRE 272 -80 144 -80
WIRE 416 -80 416 -208
WIRE 416 -80 352 -80
WIRE 656 -80 656 -208
WIRE -96 -64 -96 -80
WIRE -224 -48 -224 -80
WIRE 528 -16 528 -96
WIRE 464 16 464 -192
WIRE 464 16 400 16
WIRE 656 32 656 -16
WIRE -224 48 -224 16
WIRE -224 48 -240 48
WIRE -240 80 -240 48
WIRE -96 96 -96 16
WIRE 144 96 144 -80
WIRE 176 96 144 96
WIRE 304 96 256 96
WIRE 400 144 400 16
WIRE 336 176 320 176
WIRE 480 192 448 192
WIRE 0 208 -32 208
WIRE 112 208 80 208
WIRE 304 208 304 96
WIRE 304 208 176 208
WIRE 320 208 320 176
WIRE 320 208 304 208
WIRE -32 240 -32 208
WIRE 480 240 480 192
WIRE 512 240 480 240
WIRE 640 240 576 240
WIRE 784 240 720 240
WIRE 896 240 784 240
WIRE 1152 240 960 240
WIRE 1328 240 1152 240
WIRE 336 256 336 208
WIRE 336 256 240 256
WIRE 400 256 400 240
WIRE 784 288 784 240
WIRE 1152 288 1152 240
WIRE 240 304 240 256
WIRE 288 304 240 304
WIRE 480 304 480 240
WIRE 480 304 352 304
WIRE 1328 352 1328 240
WIRE 240 368 240 304
WIRE 288 368 240 368
WIRE 480 368 480 304
WIRE 480 368 352 368
WIRE -32 384 -32 320
WIRE 1152 400 1152 352
WIRE 240 448 240 368
WIRE 288 448 240 448
WIRE 480 448 480 368
WIRE 480 448 368 448
WIRE 1328 448 1328 432
WIRE 1552 448 1328 448
WIRE 1328 480 1328 448
WIRE 1920 480 1920 -304
WIRE -112 512 -176 512
WIRE -96 512 -112 512
WIRE 1552 512 1552 448
WIRE -176 560 -176 512
WIRE 240 560 240 448
WIRE 288 560 240 560
WIRE 480 560 480 448
WIRE 480 560 352 560
WIRE 1152 560 1152 480
WIRE 2144 592 2144 -272
WIRE 1552 624 1552 592
WIRE 1664 624 1552 624
WIRE 1840 624 1744 624
WIRE 1920 624 1920 560
WIRE 1920 624 1840 624
WIRE 2080 624 1920 624
WIRE 1552 640 1552 624
WIRE 2240 640 2192 640
WIRE 2352 640 2240 640
WIRE 2448 640 2416 640
WIRE 1840 656 1840 624
WIRE 2080 656 2032 656
WIRE 784 672 784 368
WIRE 960 672 784 672
WIRE 1056 672 960 672
WIRE 1152 672 1152 640
WIRE 1152 672 1120 672
WIRE -176 688 -176 640
WIRE -176 688 -192 688
WIRE 240 688 240 640
WIRE 1152 688 1152 672
WIRE 784 704 784 672
WIRE 960 704 960 672
WIRE 2416 720 2416 640
WIRE -192 736 -192 688
WIRE 2144 736 2144 688
WIRE 1552 752 1552 720
WIRE 1840 752 1840 720
WIRE 1152 784 1152 768
WIRE 240 800 240 752
WIRE 240 800 224 800
WIRE 2032 800 2032 656
WIRE 2096 800 2032 800
WIRE 2240 800 2240 640
WIRE 2240 800 2176 800
WIRE 224 816 224 800
WIRE 960 816 960 784
WIRE 1328 816 1328 560
WIRE 1328 816 960 816
WIRE 2032 848 2032 800
WIRE 2416 848 2416 800
WIRE 960 864 960 816
WIRE 1328 864 1328 816
WIRE 784 960 784 768
WIRE 960 960 960 944
WIRE 960 960 784 960
WIRE 2032 960 2032 928
WIRE 784 976 784 960
WIRE 1328 1008 1328 928
WIRE 784 1104 784 1056
WIRE 960 1104 960 1040
FLAG -192 736 0
FLAG 528 -16 0
FLAG 224 816 0
FLAG -240 80 0
FLAG -96 96 0
FLAG 656 32 0
FLAG 2416 848 0
FLAG -112 512 in
FLAG 2448 640 out
FLAG 400 256 0
FLAG -32 384 0
FLAG 784 1104 0
FLAG 960 1104 0
FLAG 1328 1008 0
FLAG 1152 784 0
FLAG 1552 752 0
FLAG 1840 752 0
FLAG 2032 960 0
FLAG 2144 736 0
SYMBOL res 96 192 R90
WINDOW 0 0 56 VBottom 2
WINDOW 3 32 56 VTop 2
SYMATTR InstName R1
SYMATTR Value 10k
SYMBOL res 736 224 R90
WINDOW 0 0 56 VBottom 2
WINDOW 3 32 56 VTop 2
SYMATTR InstName R2
SYMATTR Value 10k
SYMBOL res 2432 816 R180
WINDOW 0 36 76 Left 2
WINDOW 3 36 40 Left 2
SYMATTR InstName R3
SYMATTR Value 100k
SYMBOL res 256 -64 R270
WINDOW 0 32 56 VTop 2
WINDOW 3 0 56 VBottom 2
SYMATTR InstName R4
SYMATTR Value 10k
SYMBOL res -112 -80 R0
SYMATTR InstName R5
SYMATTR Value 10k
SYMBOL res 272 80 R90
WINDOW 0 0 56 VBottom 2
WINDOW 3 32 56 VTop 2
SYMATTR InstName R6
SYMATTR Value 1Meg
SYMBOL res 384 432 R90
WINDOW 0 0 56 VBottom 2
WINDOW 3 32 56 VTop 2
SYMATTR InstName R
SYMATTR Value 250k
SYMBOL res 256 656 R180
WINDOW 0 36 76 Left 2
WINDOW 3 36 40 Left 2
SYMATTR InstName R8
SYMATTR Value 1k
SYMBOL diode 352 352 R90
WINDOW 0 0 32 VBottom 2
WINDOW 3 32 32 VTop 2
SYMATTR InstName D1
SYMATTR Value 1N4148
SYMBOL diode 288 320 R270
WINDOW 0 32 32 VTop 2
WINDOW 3 0 32 VBottom 2
SYMATTR InstName D2
SYMATTR Value 1N4148
SYMBOL cap 176 192 R90
WINDOW 0 0 32 VBottom 2
WINDOW 3 32 32 VTop 2
SYMATTR InstName C1
SYMATTR Value 470n
SYMBOL cap 352 544 R90
WINDOW 0 0 32 VBottom 2
WINDOW 3 32 32 VTop 2
SYMATTR InstName C2
SYMATTR Value 100p
SYMBOL cap 256 752 R180
WINDOW 0 24 56 Left 2
WINDOW 3 24 8 Left 2
SYMATTR InstName C3
SYMATTR Value 220n
SYMBOL polcap -240 -48 R0
SYMATTR InstName C5
SYMATTR Value 47µ
SYMBOL polcap 640 -80 R0
SYMATTR InstName C6
SYMATTR Value 47µ
SYMBOL polcap 576 224 R90
WINDOW 0 0 32 VBottom 2
WINDOW 3 32 32 VTop 2
SYMATTR InstName C7
SYMATTR Value 1µ
SYMBOL voltage -176 544 R0
WINDOW 123 0 0 Left 0
WINDOW 39 0 0 Left 0
SYMATTR InstName V1
SYMATTR Value wavefile=clean.wav chan=0
SYMBOL voltage 528 -192 R0
SYMATTR InstName V2
SYMATTR Value 9V
SYMBOL AutoGenerated\\TL072 416 192 R0
SYMATTR InstName U1
SYMBOL voltage -32 224 R0
WINDOW 123 24 124 Left 2
WINDOW 39 0 0 Left 0
SYMATTR Value2 AC 1
SYMATTR InstName V3
SYMATTR Value ""
SYMBOL res 768 272 R0
SYMATTR InstName R7
SYMATTR Value 1.5k
SYMBOL res 1136 384 R0
SYMATTR InstName R9
SYMATTR Value 100
SYMBOL res 1136 544 R0
SYMATTR InstName R10
SYMATTR Value 9k
SYMBOL res 1136 672 R0
SYMATTR InstName R11
SYMATTR Value 1k
SYMBOL res 768 960 R0
WINDOW 3 49 71 Left 2
SYMATTR Value 680
SYMATTR InstName R12
SYMBOL res 944 944 R0
SYMATTR InstName R13
SYMATTR Value 5k
SYMBOL res 944 848 R0
SYMATTR InstName R14
SYMATTR Value 5k
SYMBOL res 944 688 R0
SYMATTR InstName R15
SYMATTR Value 680
SYMBOL cap 960 224 R90
WINDOW 0 0 32 VBottom 2
WINDOW 3 32 32 VTop 2
SYMATTR InstName C8
SYMATTR Value 4.7n
SYMBOL cap 1168 352 R180
WINDOW 0 24 56 Left 2
WINDOW 3 24 8 Left 2
SYMATTR InstName C9
SYMATTR Value 10n
SYMBOL cap 800 768 R180
WINDOW 0 24 56 Left 2
WINDOW 3 24 8 Left 2
SYMATTR InstName C10
SYMATTR Value 100n
SYMBOL cap 1056 688 R270
WINDOW 0 32 32 VTop 2
WINDOW 3 0 32 VBottom 2
SYMATTR InstName C11
SYMATTR Value 220n
SYMBOL cap 1312 864 R0
WINDOW 3 49 58 Left 2
SYMATTR Value 68n
SYMATTR InstName C12
SYMBOL res 1312 464 R0
SYMATTR InstName R16
SYMATTR Value 5k
SYMBOL res 1312 336 R0
SYMATTR InstName R17
SYMATTR Value 5k
SYMBOL res 1536 496 R0
SYMATTR InstName R18
SYMATTR Value 20k
SYMBOL res 1536 624 R0
SYMATTR InstName R19
SYMATTR Value 80k
SYMBOL res 1760 608 R90
WINDOW 0 0 56 VBottom 2
WINDOW 3 32 56 VTop 2
SYMATTR InstName R20
SYMATTR Value 22k
SYMBOL cap 1824 656 R0
SYMATTR InstName C4
SYMATTR Value 470p
SYMBOL AutoGenerated\\TL072 2160 640 R0
SYMATTR InstName U2
SYMBOL res 2192 784 R90
WINDOW 0 0 56 VBottom 2
WINDOW 3 32 56 VTop 2
SYMATTR InstName R21
SYMATTR Value 68k
SYMBOL res 2048 944 R180
WINDOW 0 36 76 Left 2
WINDOW 3 36 40 Left 2
SYMATTR InstName R22
SYMATTR Value 10k
SYMBOL res 1904 464 R0
SYMATTR InstName R25
SYMATTR Value 1Meg
SYMBOL cap 2416 624 R90
WINDOW 0 0 32 VBottom 2
WINDOW 3 32 32 VTop 2
SYMATTR InstName C13
SYMATTR Value 0.1µ
TEXT 904 -120 Left 2 !.wave clean_overdriveEQ.wav 16 44100 out
TEXT 904 -80 Left 2 !.ac dec 100 20 20k
TEXT 904 -16 Left 2 !.option plotwinsize = 0
TEXT 904 -48 Left 2 !.option numdgt = 12
TEXT 1360 576 Left 2 ;treble
TEXT 1008 968 Left 2 ;bass
TEXT 1176 664 Left 2 ;mid
TEXT 1144 -80 Left 2 ;.tran 0 10 0 10u
TEXT 1456 656 Left 2 ;level
