Version 4
SHEET 1 1368 836
WIRE -96 -80 -224 -80
WIRE 144 -80 -96 -80
WIRE 272 -80 144 -80
WIRE 528 -80 352 -80
WIRE 656 -80 528 -80
WIRE -96 -64 -96 -80
WIRE 528 -64 528 -80
WIRE 528 -64 400 -64
WIRE -224 -48 -224 -80
WIRE 528 -48 528 -64
WIRE 656 32 656 -16
WIRE 528 80 528 32
WIRE -224 96 -224 16
WIRE -96 96 -96 16
WIRE 144 96 144 -80
WIRE 176 96 144 96
WIRE 304 96 256 96
WIRE 400 144 400 -64
WIRE 336 176 320 176
WIRE 480 192 448 192
WIRE 512 192 480 192
WIRE 608 192 576 192
WIRE 688 192 608 192
WIRE 880 192 688 192
WIRE -16 208 -96 208
WIRE 0 208 -16 208
WIRE 112 208 80 208
WIRE 304 208 304 96
WIRE 304 208 176 208
WIRE 320 208 320 176
WIRE 320 208 304 208
WIRE -96 224 -96 208
WIRE 880 240 880 192
WIRE 912 240 880 240
WIRE 1056 240 992 240
WIRE 1216 240 1056 240
WIRE 336 256 336 208
WIRE 336 256 240 256
WIRE 400 256 400 240
WIRE 608 288 608 192
WIRE 688 288 688 192
WIRE 1056 304 1056 240
WIRE -736 320 -800 320
WIRE 240 336 240 256
WIRE 288 336 240 336
WIRE 480 336 480 192
WIRE 480 336 368 336
WIRE 1216 336 1216 320
WIRE 1312 336 1216 336
WIRE -800 368 -800 320
WIRE -96 384 -96 304
WIRE 608 400 608 352
WIRE 688 400 688 352
WIRE 1056 432 1056 368
WIRE 1216 432 1216 416
WIRE 240 448 240 336
WIRE 288 448 240 448
WIRE 480 448 480 336
WIRE 480 448 352 448
WIRE -800 512 -800 448
WIRE 240 544 240 528
WIRE 240 656 240 608
FLAG -800 512 0
FLAG 528 80 0
FLAG 240 656 0
FLAG 1056 432 0
FLAG -224 96 0
FLAG -96 96 0
FLAG 656 32 0
FLAG 1216 432 0
FLAG -736 320 in
FLAG 1312 336 out
FLAG 400 256 0
FLAG -96 384 0
FLAG -16 208 in2
FLAG 608 400 0
FLAG 688 400 0
SYMBOL res 96 192 R90
WINDOW 0 0 56 VBottom 2
WINDOW 3 32 56 VTop 2
SYMATTR InstName R1
SYMATTR Value 10k
SYMBOL res 1008 224 R90
WINDOW 0 0 56 VBottom 2
WINDOW 3 32 56 VTop 2
SYMATTR InstName R2
SYMATTR Value 10k
SYMBOL res 1232 432 R180
WINDOW 0 36 76 Left 2
WINDOW 3 36 40 Left 2
SYMATTR InstName R3
SYMATTR Value 90k
SYMBOL res 256 -64 R270
WINDOW 0 32 56 VTop 2
WINDOW 3 0 56 VBottom 2
SYMATTR InstName R4
SYMATTR Value 10k
SYMBOL res -112 -80 R0
SYMATTR InstName R5
SYMATTR Value 10k
SYMBOL res 272 80 R90
WINDOW 0 0 56 VBottom 2
WINDOW 3 32 56 VTop 2
SYMATTR InstName R6
SYMATTR Value 1Meg
SYMBOL res 384 320 R90
WINDOW 0 0 56 VBottom 2
WINDOW 3 32 56 VTop 2
SYMATTR InstName R
SYMATTR Value 250k
SYMBOL res 256 544 R180
WINDOW 0 36 76 Left 2
WINDOW 3 36 40 Left 2
SYMATTR InstName R8
SYMATTR Value 1k
SYMBOL diode 624 352 R180
WINDOW 0 24 64 Left 2
WINDOW 3 24 0 Left 2
SYMATTR InstName D1
SYMATTR Value 1N4148
SYMBOL diode 672 288 R0
SYMATTR InstName D2
SYMATTR Value 1N4148
SYMBOL cap 176 192 R90
WINDOW 0 0 32 VBottom 2
WINDOW 3 32 32 VTop 2
SYMATTR InstName C1
SYMATTR Value 470n
SYMBOL cap 352 432 R90
WINDOW 0 0 32 VBottom 2
WINDOW 3 32 32 VTop 2
SYMATTR InstName C2
SYMATTR Value 100p
SYMBOL cap 256 608 R180
WINDOW 0 24 56 Left 2
WINDOW 3 24 8 Left 2
SYMATTR InstName C3
SYMATTR Value 220n
SYMBOL cap 1040 304 R0
SYMATTR InstName C4
SYMATTR Value 22n
SYMBOL polcap -240 -48 R0
SYMATTR InstName C5
SYMATTR Value 47µ
SYMBOL polcap 640 -80 R0
SYMATTR InstName C6
SYMATTR Value 47µ
SYMBOL polcap 576 176 R90
WINDOW 0 0 32 VBottom 2
WINDOW 3 32 32 VTop 2
SYMATTR InstName C7
SYMATTR Value 1µ
SYMBOL voltage -800 352 R0
WINDOW 123 0 0 Left 0
WINDOW 39 0 0 Left 0
SYMATTR InstName V1
SYMATTR Value wavefile=clean.wav chan=0
SYMBOL voltage 528 -64 R0
SYMATTR InstName V2
SYMATTR Value 9V
SYMBOL AutoGenerated\\TL072 416 192 R0
WINDOW 3 42 -78 Top 2
SYMATTR InstName U1
SYMBOL res 1200 224 R0
SYMATTR InstName R7
SYMATTR Value 10k
SYMBOL voltage -96 208 R0
WINDOW 123 0 0 Left 0
WINDOW 39 0 0 Left 0
SYMATTR InstName V3
SYMATTR Value SINE(0 0.25 1k)
TEXT -208 -184 Left 2 !.wave sine_overdrive.wav 16 44100 out
TEXT -208 -160 Left 2 !.tran 0.1
