Version 4
SHEET 1 1688 836
WIRE 816 -128 144 -128
WIRE 944 -96 528 -96
WIRE -96 -80 -224 -80
WIRE 144 -80 144 -128
WIRE 144 -80 -96 -80
WIRE 272 -80 144 -80
WIRE 528 -80 528 -96
WIRE 528 -80 352 -80
WIRE 656 -80 528 -80
WIRE -96 -64 -96 -80
WIRE 528 -64 528 -80
WIRE 528 -64 400 -64
WIRE -224 -48 -224 -80
WIRE 528 -48 528 -64
WIRE 656 32 656 -16
WIRE 816 32 816 -128
WIRE 528 80 528 32
WIRE -224 96 -224 16
WIRE -96 96 -96 16
WIRE 144 96 144 -80
WIRE 176 96 144 96
WIRE 304 96 256 96
WIRE -800 112 -800 96
WIRE 400 144 400 -64
WIRE 944 160 944 -96
WIRE 336 176 320 176
WIRE 480 192 448 192
WIRE 512 192 480 192
WIRE 608 192 576 192
WIRE 688 192 608 192
WIRE 816 192 816 112
WIRE 816 192 688 192
WIRE 880 192 816 192
WIRE 1136 192 1072 192
WIRE -16 208 -80 208
WIRE 0 208 -16 208
WIRE 112 208 80 208
WIRE 304 208 304 96
WIRE 304 208 176 208
WIRE 320 208 320 176
WIRE 320 208 304 208
WIRE 1072 208 1072 192
WIRE 1072 208 992 208
WIRE 880 224 832 224
WIRE 1200 240 1200 192
WIRE 1232 240 1200 240
WIRE 1376 240 1312 240
WIRE 1536 240 1376 240
WIRE -80 256 -80 208
WIRE 336 256 336 208
WIRE 336 256 240 256
WIRE 400 256 400 240
WIRE 960 256 944 256
WIRE -800 272 -800 192
WIRE 960 272 960 256
WIRE 608 288 608 192
WIRE 688 288 688 192
WIRE 832 304 832 224
WIRE 896 304 832 304
WIRE 1072 304 1072 208
WIRE 1072 304 960 304
WIRE 1376 304 1376 240
WIRE 240 336 240 256
WIRE 288 336 240 336
WIRE 480 336 480 192
WIRE 480 336 368 336
WIRE 1536 336 1536 320
WIRE 1632 336 1536 336
WIRE 832 384 832 304
WIRE 896 384 832 384
WIRE 1072 384 1072 304
WIRE 1072 384 960 384
WIRE -80 400 -80 336
WIRE 608 400 608 352
WIRE 688 400 688 352
WIRE 1376 432 1376 368
WIRE 1536 432 1536 416
WIRE 240 448 240 336
WIRE 288 448 240 448
WIRE 480 448 480 336
WIRE 480 448 352 448
WIRE 832 480 832 384
WIRE 880 480 832 480
WIRE 1072 480 1072 384
WIRE 1072 480 960 480
WIRE 240 544 240 528
WIRE 832 592 832 480
WIRE 880 592 832 592
WIRE 1072 592 1072 480
WIRE 1072 592 944 592
WIRE 240 656 240 608
WIRE 832 688 832 672
WIRE 832 800 832 752
FLAG -80 400 0
FLAG 528 80 0
FLAG 240 656 0
FLAG 1376 432 0
FLAG -224 96 0
FLAG -96 96 0
FLAG 656 32 0
FLAG 1536 432 0
FLAG -16 208 in
FLAG 1632 336 out
FLAG 400 256 0
FLAG -800 272 0
FLAG 608 400 0
FLAG 688 400 0
FLAG 832 800 0
FLAG 960 272 0
FLAG -800 96 in2
SYMBOL res 96 192 R90
WINDOW 0 0 56 VBottom 2
WINDOW 3 32 56 VTop 2
SYMATTR InstName R1
SYMATTR Value 10k
SYMBOL res 1328 224 R90
WINDOW 0 0 56 VBottom 2
WINDOW 3 32 56 VTop 2
SYMATTR InstName R2
SYMATTR Value 10k
SYMBOL res 1552 432 R180
WINDOW 0 36 76 Left 2
WINDOW 3 36 40 Left 2
SYMATTR InstName R3
SYMATTR Value 20k
SYMBOL res 256 -64 R270
WINDOW 0 32 56 VTop 2
WINDOW 3 0 56 VBottom 2
SYMATTR InstName R4
SYMATTR Value 10k
SYMBOL res -112 -80 R0
SYMATTR InstName R5
SYMATTR Value 10k
SYMBOL res 272 80 R90
WINDOW 0 0 56 VBottom 2
WINDOW 3 32 56 VTop 2
SYMATTR InstName R6
SYMATTR Value 1Meg
SYMBOL res 384 320 R90
WINDOW 0 0 56 VBottom 2
WINDOW 3 32 56 VTop 2
SYMATTR InstName R
SYMATTR Value 250k
SYMBOL res 256 544 R180
WINDOW 0 36 76 Left 2
WINDOW 3 36 40 Left 2
SYMATTR InstName R8
SYMATTR Value 1k
SYMBOL LED 624 352 R180
WINDOW 0 24 64 Left 2
WINDOW 3 24 0 Left 2
SYMATTR InstName D1
SYMATTR Value AOT-2015
SYMATTR Description Diode
SYMATTR Type diode
SYMBOL LED 672 288 R0
SYMATTR InstName D2
SYMATTR Value AOT-2015
SYMATTR Description Diode
SYMATTR Type diode
SYMBOL cap 176 192 R90
WINDOW 0 0 32 VBottom 2
WINDOW 3 32 32 VTop 2
SYMATTR InstName C1
SYMATTR Value 470n
SYMBOL cap 352 432 R90
WINDOW 0 0 32 VBottom 2
WINDOW 3 32 32 VTop 2
SYMATTR InstName C2
SYMATTR Value 100p
SYMBOL cap 256 608 R180
WINDOW 0 24 56 Left 2
WINDOW 3 24 8 Left 2
SYMATTR InstName C3
SYMATTR Value 220n
SYMBOL cap 1360 304 R0
SYMATTR InstName C4
SYMATTR Value 22n
SYMBOL polcap -240 -48 R0
SYMATTR InstName C5
SYMATTR Value 47µ
SYMBOL polcap 640 -80 R0
SYMATTR InstName C6
SYMATTR Value 47µ
SYMBOL polcap 576 176 R90
WINDOW 0 0 32 VBottom 2
WINDOW 3 32 32 VTop 2
SYMATTR InstName C7
SYMATTR Value 1µ
SYMBOL voltage -80 240 R0
WINDOW 123 0 0 Left 0
WINDOW 39 0 0 Left 0
SYMATTR InstName V1
SYMATTR Value wavefile=clean.wav chan=0
SYMBOL voltage 528 -64 R0
SYMATTR InstName V2
SYMATTR Value 9V
SYMBOL AutoGenerated\\TL072 416 192 R0
WINDOW 3 42 -78 Top 2
SYMATTR InstName U1
SYMBOL res 1520 224 R0
SYMATTR InstName R7
SYMATTR Value 80k
SYMBOL voltage -800 96 R0
WINDOW 123 0 0 Left 0
WINDOW 39 0 0 Left 0
SYMATTR InstName V3
SYMATTR Value SINE(0 0.25 1k)
SYMBOL polcap 1200 176 R90
WINDOW 0 0 32 VBottom 2
WINDOW 3 32 32 VTop 2
SYMATTR InstName C8
SYMATTR Value 1µ
SYMBOL AutoGenerated\\TL072 960 208 R0
WINDOW 3 42 -78 Top 2
SYMATTR InstName U2
SYMBOL res 976 464 R90
WINDOW 0 0 56 VBottom 2
WINDOW 3 32 56 VTop 2
SYMATTR InstName R9
SYMATTR Value 250k
SYMBOL res 848 688 R180
WINDOW 0 36 76 Left 2
WINDOW 3 36 40 Left 2
SYMATTR InstName R10
SYMATTR Value 1k
SYMBOL cap 944 576 R90
WINDOW 0 0 32 VBottom 2
WINDOW 3 32 32 VTop 2
SYMATTR InstName C9
SYMATTR Value 100p
SYMBOL cap 848 752 R180
WINDOW 0 24 56 Left 2
WINDOW 3 24 8 Left 2
SYMATTR InstName C10
SYMATTR Value 220n
SYMBOL diode 960 368 R90
WINDOW 0 0 32 VBottom 2
WINDOW 3 32 32 VTop 2
SYMATTR InstName D3
SYMATTR Value 1N4148
SYMBOL diode 896 320 R270
WINDOW 0 32 32 VTop 2
WINDOW 3 0 32 VBottom 2
SYMATTR InstName D4
SYMATTR Value 1N4148
SYMBOL res 832 128 R180
WINDOW 0 36 76 Left 2
WINDOW 3 36 40 Left 2
SYMATTR InstName R11
SYMATTR Value 1Meg
TEXT -208 -184 Left 2 !.wave clean_hard_n_soft.wav 16 44100 out
TEXT -208 -160 Left 2 !.tran 5
