Version 4
SHEET 1 1096 836
WIRE 528 -208 416 -208
WIRE 656 -208 528 -208
WIRE 528 -192 528 -208
WIRE 528 -192 464 -192
WIRE 528 -176 528 -192
WIRE -96 -80 -224 -80
WIRE 144 -80 -96 -80
WIRE 272 -80 144 -80
WIRE 416 -80 416 -208
WIRE 416 -80 352 -80
WIRE 656 -80 656 -208
WIRE -96 -64 -96 -80
WIRE -224 -48 -224 -80
WIRE 528 -16 528 -96
WIRE 464 16 464 -192
WIRE 464 16 400 16
WIRE 656 32 656 -16
WIRE -224 48 -224 16
WIRE -224 48 -240 48
WIRE -240 80 -240 48
WIRE -96 96 -96 16
WIRE 144 96 144 -80
WIRE 176 96 144 96
WIRE 304 96 256 96
WIRE 400 144 400 16
WIRE 336 176 320 176
WIRE 480 192 448 192
WIRE -192 208 -256 208
WIRE 0 208 -192 208
WIRE 112 208 80 208
WIRE 304 208 304 96
WIRE 304 208 176 208
WIRE 320 208 320 176
WIRE 320 208 304 208
WIRE 640 208 608 208
WIRE 784 208 720 208
WIRE 1008 208 784 208
WIRE 1040 208 1008 208
WIRE 480 240 480 192
WIRE 512 240 480 240
WIRE 608 240 608 208
WIRE 608 240 576 240
WIRE -256 256 -256 208
WIRE 336 256 336 208
WIRE 336 256 240 256
WIRE 400 256 400 240
WIRE 784 272 784 208
WIRE 1008 288 1008 208
WIRE 240 304 240 256
WIRE 288 304 240 304
WIRE 480 304 480 240
WIRE 480 304 352 304
WIRE 240 368 240 304
WIRE 288 368 240 368
WIRE 480 368 480 304
WIRE 480 368 352 368
WIRE -256 384 -256 336
WIRE -256 384 -272 384
WIRE 784 400 784 336
WIRE 1008 416 1008 368
WIRE -272 432 -272 384
WIRE 240 448 240 368
WIRE 288 448 240 448
WIRE 480 448 480 368
WIRE 480 448 368 448
WIRE 240 560 240 448
WIRE 288 560 240 560
WIRE 480 560 480 448
WIRE 480 560 352 560
WIRE 240 688 240 640
WIRE 240 800 240 752
WIRE 240 800 224 800
WIRE 224 816 224 800
FLAG -272 432 0
FLAG 528 -16 0
FLAG 224 816 0
FLAG 784 400 0
FLAG -240 80 0
FLAG -96 96 0
FLAG 656 32 0
FLAG 1008 416 0
FLAG -192 208 in
FLAG 1040 208 out
FLAG 400 256 0
SYMBOL res 96 192 R90
WINDOW 0 0 56 VBottom 2
WINDOW 3 32 56 VTop 2
SYMATTR InstName R1
SYMATTR Value 10k
SYMBOL res 736 192 R90
WINDOW 0 0 56 VBottom 2
WINDOW 3 32 56 VTop 2
SYMATTR InstName R2
SYMATTR Value 10k
SYMBOL res 1024 384 R180
WINDOW 0 36 76 Left 2
WINDOW 3 36 40 Left 2
SYMATTR InstName R3
SYMATTR Value 100k
SYMBOL res 256 -64 R270
WINDOW 0 32 56 VTop 2
WINDOW 3 0 56 VBottom 2
SYMATTR InstName R4
SYMATTR Value 10k
SYMBOL res -112 -80 R0
SYMATTR InstName R5
SYMATTR Value 10k
SYMBOL res 272 80 R90
WINDOW 0 0 56 VBottom 2
WINDOW 3 32 56 VTop 2
SYMATTR InstName R6
SYMATTR Value 1Meg
SYMBOL res 384 432 R90
WINDOW 0 0 56 VBottom 2
WINDOW 3 32 56 VTop 2
SYMATTR InstName R
SYMATTR Value 250k
SYMBOL res 256 656 R180
WINDOW 0 36 76 Left 2
WINDOW 3 36 40 Left 2
SYMATTR InstName R8
SYMATTR Value 1k
SYMBOL diode 352 352 R90
WINDOW 0 0 32 VBottom 2
WINDOW 3 32 32 VTop 2
SYMATTR InstName D1
SYMATTR Value 1N4148
SYMBOL diode 288 320 R270
WINDOW 0 32 32 VTop 2
WINDOW 3 0 32 VBottom 2
SYMATTR InstName D2
SYMATTR Value 1N4148
SYMBOL cap 176 192 R90
WINDOW 0 0 32 VBottom 2
WINDOW 3 32 32 VTop 2
SYMATTR InstName C1
SYMATTR Value 470n
SYMBOL cap 352 544 R90
WINDOW 0 0 32 VBottom 2
WINDOW 3 32 32 VTop 2
SYMATTR InstName C2
SYMATTR Value 100p
SYMBOL cap 256 752 R180
WINDOW 0 24 56 Left 2
WINDOW 3 24 8 Left 2
SYMATTR InstName C3
SYMATTR Value 220n
SYMBOL cap 768 272 R0
SYMATTR InstName C4
SYMATTR Value 22n
SYMBOL polcap -240 -48 R0
SYMATTR InstName C5
SYMATTR Value 47µ
SYMBOL polcap 640 -80 R0
SYMATTR InstName C6
SYMATTR Value 47µ
SYMBOL polcap 576 224 R90
WINDOW 0 0 32 VBottom 2
WINDOW 3 32 32 VTop 2
SYMATTR InstName C7
SYMATTR Value 1µ
SYMBOL voltage -256 240 R0
WINDOW 123 0 0 Left 0
WINDOW 39 0 0 Left 0
SYMATTR InstName V1
SYMATTR Value wavefile=clean.wav chan=0
SYMBOL voltage 528 -192 R0
SYMATTR InstName V2
SYMATTR Value 9V
SYMBOL AutoGenerated\\TL072 416 192 R0
SYMATTR InstName U1
TEXT 24 -248 Left 2 !.wave clean_overdrive.wav 16 44100 out
TEXT 24 -208 Left 2 !.tran 20
