Version 4
SHEET 1 2552 680
WIRE -128 -544 -400 -544
WIRE 1488 -544 -128 -544
WIRE 2032 -544 1488 -544
WIRE 2368 -544 2032 -544
WIRE 2368 -496 2368 -544
WIRE 96 -464 -240 -464
WIRE 192 -464 96 -464
WIRE 736 -464 192 -464
WIRE 1696 -464 736 -464
WIRE 1888 -464 1696 -464
WIRE 2256 -464 1888 -464
WIRE -400 -432 -400 -464
WIRE 2256 -400 2256 -464
WIRE 2368 -400 2368 -416
WIRE 2368 -400 2256 -400
WIRE 2496 -400 2368 -400
WIRE 2368 -368 2368 -400
WIRE 336 -352 304 -352
WIRE 480 -352 416 -352
WIRE 592 -352 560 -352
WIRE 832 -352 816 -352
WIRE 1104 -352 992 -352
WIRE 1280 -352 1184 -352
WIRE 1888 -352 1888 -464
WIRE 2496 -352 2496 -400
WIRE -240 -288 -240 -464
WIRE 96 -272 96 -464
WIRE 192 -272 192 -464
WIRE 304 -272 304 -352
WIRE 416 -272 304 -272
WIRE 592 -272 592 -352
WIRE 592 -272 480 -272
WIRE 1696 -272 1696 -464
WIRE 736 -256 736 -464
WIRE 912 -256 912 -352
WIRE 2368 -256 2368 -288
WIRE 2496 -256 2496 -288
WIRE 2032 -224 2032 -544
WIRE 304 -208 304 -272
WIRE 368 -208 304 -208
WIRE 464 -208 432 -208
WIRE 592 -208 592 -272
WIRE 592 -208 528 -208
WIRE -128 -176 -128 -544
WIRE 192 -176 192 -192
WIRE 912 -176 912 -192
WIRE 1696 -176 1696 -192
WIRE 1776 -176 1696 -176
WIRE 1888 -176 1888 -272
WIRE 1888 -176 1840 -176
WIRE 1968 -176 1888 -176
WIRE 1104 -144 1040 -144
WIRE 1696 -144 1696 -176
WIRE -688 -128 -736 -128
WIRE -480 -128 -688 -128
WIRE -464 -128 -480 -128
WIRE -240 -128 -240 -208
WIRE -240 -128 -320 -128
WIRE -192 -128 -240 -128
WIRE 304 -128 304 -208
WIRE 464 -128 304 -128
WIRE 592 -128 592 -208
WIRE 592 -128 528 -128
WIRE 1040 -128 1040 -144
WIRE 2032 -112 2032 -128
WIRE 2112 -112 2032 -112
WIRE 2240 -112 2192 -112
WIRE 2336 -112 2304 -112
WIRE 2464 -112 2336 -112
WIRE 464 -96 368 -96
WIRE 2032 -96 2032 -112
WIRE -16 -80 -128 -80
WIRE 96 -80 96 -192
WIRE 96 -80 48 -80
WIRE 2336 -80 2336 -112
WIRE 368 -64 368 -96
WIRE 912 -64 912 -96
WIRE 1104 -64 1104 -144
WIRE -736 -48 -736 -128
WIRE -128 -48 -128 -80
WIRE 464 -48 464 -96
WIRE 992 -32 992 -352
WIRE 1040 -32 992 -32
WIRE 192 -16 192 -112
WIRE 304 -16 304 -128
WIRE 304 -16 192 -16
WIRE 400 -16 304 -16
WIRE 1280 -16 1280 -352
WIRE 1280 -16 1152 -16
WIRE 1296 -16 1280 -16
WIRE 1536 -16 1360 -16
WIRE 1696 -16 1696 -64
WIRE 1696 -16 1616 -16
WIRE 592 0 592 -128
WIRE 592 0 512 0
WIRE 624 0 592 0
WIRE 736 0 736 -176
WIRE 736 0 704 0
WIRE 816 0 816 -352
WIRE 816 0 736 0
WIRE 1040 0 816 0
WIRE 96 16 96 -80
WIRE 400 16 96 16
WIRE 736 32 736 0
WIRE 2032 48 2032 -16
WIRE 2336 48 2336 0
WIRE -480 64 -480 -128
WIRE -128 112 -128 32
WIRE 464 112 464 48
WIRE 1104 112 1104 32
WIRE 1104 112 464 112
WIRE 1488 112 1488 -544
WIRE 1488 112 1104 112
WIRE 736 160 736 96
WIRE -736 192 -736 32
WIRE -480 192 -480 144
WIRE -704 288 -752 288
WIRE -592 288 -704 288
WIRE -752 368 -752 288
WIRE -624 608 -752 448
FLAG -736 192 0
FLAG -688 -128 in
FLAG -624 608 0
FLAG 368 -64 0
FLAG 736 160 0
FLAG 912 -64 0
FLAG 1040 -128 0
FLAG -128 112 0
FLAG 2032 48 0
FLAG 2336 48 0
FLAG -704 288 in2
FLAG -400 -432 0
FLAG 2368 -256 0
FLAG 2496 -256 0
FLAG 2464 -112 out
FLAG -480 192 0
SYMBOL voltage -736 -64 R0
WINDOW 123 0 0 Left 0
WINDOW 39 0 0 Left 0
SYMATTR InstName V1
SYMATTR Value wavefile=clean.wav chan=0
SYMBOL voltage -752 352 R0
WINDOW 123 0 0 Left 0
WINDOW 39 0 0 Left 0
SYMATTR InstName V2
SYMATTR Value SINE(0 0.5 1k)
SYMBOL cap -400 -144 R90
WINDOW 0 0 32 VBottom 2
WINDOW 3 32 32 VTop 2
SYMATTR InstName C1
SYMATTR Value 22n
SYMBOL res -304 -144 R90
WINDOW 0 0 56 VBottom 2
WINDOW 3 32 56 VTop 2
SYMATTR InstName R1
SYMATTR Value 1k
SYMBOL res -256 -304 R0
SYMATTR InstName R2
SYMATTR Value 510k
SYMBOL res -144 -64 R0
SYMATTR InstName R3
SYMATTR Value 10k
SYMBOL npn -192 -176 R0
SYMATTR InstName Q1
SYMATTR Value 2N3904
SYMBOL cap 48 -96 R90
WINDOW 0 0 32 VBottom 2
WINDOW 3 32 32 VTop 2
SYMATTR InstName C2
SYMATTR Value 1µ
SYMBOL res 80 -288 R0
SYMATTR InstName R4
SYMATTR Value 10k
SYMBOL res 176 -288 R0
SYMATTR InstName R5
SYMATTR Value 4k7
SYMBOL cap 176 -176 R0
SYMATTR InstName C3
SYMATTR Value 0.047
SYMBOL AutoGenerated\\RC4558 480 0 M180
SYMATTR InstName U1
SYMBOL AutoGenerated\\RC4558 1120 -16 M180
SYMATTR InstName U2
SYMBOL res 432 -368 R90
WINDOW 0 0 56 VBottom 2
WINDOW 3 32 56 VTop 2
SYMATTR InstName R6
SYMATTR Value 51k
SYMBOL res 576 -368 R90
WINDOW 0 0 56 VBottom 2
WINDOW 3 32 56 VTop 2
SYMATTR InstName R7
SYMATTR Value 250k
SYMBOL cap 480 -288 R90
WINDOW 0 0 32 VBottom 2
WINDOW 3 32 32 VTop 2
SYMATTR InstName C4
SYMATTR Value 51p
SYMBOL diode 432 -224 R90
WINDOW 0 0 32 VBottom 2
WINDOW 3 32 32 VTop 2
SYMATTR InstName D1
SYMATTR Value 1N914
SYMBOL diode 528 -224 R90
WINDOW 0 0 32 VBottom 2
WINDOW 3 32 32 VTop 2
SYMATTR InstName D2
SYMATTR Value 1N914
SYMBOL diode 464 -112 R270
WINDOW 0 32 32 VTop 2
WINDOW 3 0 32 VBottom 2
SYMATTR InstName D3
SYMATTR Value 1N914
SYMBOL res 720 -16 R90
WINDOW 0 0 56 VBottom 2
WINDOW 3 32 56 VTop 2
SYMATTR InstName R8
SYMATTR Value 1k
SYMBOL cap 720 32 R0
SYMATTR InstName C5
SYMATTR Value 0.22µ
SYMBOL res 720 -272 R0
SYMATTR InstName R9
SYMATTR Value 10k
SYMBOL res 928 -368 R90
WINDOW 0 0 56 VBottom 2
WINDOW 3 32 56 VTop 2
SYMATTR InstName R10
SYMATTR Value 10k
SYMBOL res 1008 -368 R90
WINDOW 0 0 56 VBottom 2
WINDOW 3 32 56 VTop 2
SYMATTR InstName R11
SYMATTR Value 10k
SYMBOL cap 896 -256 R0
SYMATTR InstName C6
SYMATTR Value 0.22µ
SYMBOL res 896 -192 R0
SYMATTR InstName R12
SYMATTR Value 220
SYMBOL res 1200 -368 R90
WINDOW 0 0 56 VBottom 2
WINDOW 3 32 56 VTop 2
SYMATTR InstName R13
SYMATTR Value 1k
SYMBOL cap 1360 -32 R90
WINDOW 0 0 32 VBottom 2
WINDOW 3 32 32 VTop 2
SYMATTR InstName C8
SYMATTR Value 1µ
SYMBOL res 1632 -32 R90
WINDOW 0 0 56 VBottom 2
WINDOW 3 32 56 VTop 2
SYMATTR InstName R14
SYMATTR Value 1k
SYMBOL res 1680 -160 R0
SYMATTR InstName R15
SYMATTR Value 80k
SYMBOL res 1680 -288 R0
SYMATTR InstName R16
SYMATTR Value 20k
SYMBOL cap 1840 -192 R90
WINDOW 0 0 32 VBottom 2
WINDOW 3 32 32 VTop 2
SYMATTR InstName C9
SYMATTR Value 0.1µ
SYMBOL res 1872 -368 R0
SYMATTR InstName R17
SYMATTR Value 510k
SYMBOL npn 1968 -224 R0
SYMATTR InstName Q2
SYMATTR Value 2N3904
SYMBOL res 2016 -112 R0
SYMATTR InstName R18
SYMATTR Value 10k
SYMBOL res 2208 -128 R90
WINDOW 0 0 56 VBottom 2
WINDOW 3 32 56 VTop 2
SYMATTR InstName R19
SYMATTR Value 100
SYMBOL polcap 2240 -96 R270
WINDOW 0 32 32 VTop 2
WINDOW 3 0 32 VBottom 2
SYMATTR InstName C10
SYMATTR Value 10µ
SYMBOL res 2320 -96 R0
SYMATTR InstName R20
SYMATTR Value 10k
SYMBOL voltage -400 -560 R0
SYMATTR InstName V3
SYMATTR Value 9V
SYMBOL res 2352 -512 R0
SYMATTR InstName R21
SYMATTR Value 10k
SYMBOL res 2352 -384 R0
SYMATTR InstName R22
SYMATTR Value 10k
SYMBOL polcap 2480 -352 R0
SYMATTR InstName C11
SYMATTR Value 47µ
SYMBOL res -496 48 R0
SYMATTR InstName R23
SYMATTR Value 2Meg2
TEXT -360 -648 Left 2 !.wave clean_screamer_asymetrical.wav 16 44100 out
TEXT -360 -608 Left 2 !.tran 2
TEXT 472 -448 Left 2 ;gain 0-500k
TEXT 824 -424 Left 2 ;tone 0-20k
TEXT 1544 -184 Left 2 ;level 0-100k
TEXT -112 -248 Left 2 ;input buffer
TEXT 1944 -392 Left 2 ;output buffer
